<?xml version="1.0" encoding="UTF-8"?>
<nodes xmlns:xsi="http://www.w3.org/2001/XMLSchema-instance" xsi:noNamespaceSchemaLocation="http://sumo.dlr.de/xsd/nodes_file.xsd">
                <node id="11" x="+0" y="-0" type="traffic_light" tl="1"/>
                <node id="12" x="+500" y="-0" type="traffic_light" tl="2"/>
                <node id="13" x="+1000" y="-0" type="traffic_light" tl="3"/>
                <node id="14" x="+1500" y="-0" type="traffic_light" tl="4"/>
                <node id="15" x="+2000" y="-0" type="traffic_light" tl="5"/>
                <node id="16" x="+2500" y="-0" type="traffic_light" tl="6"/>
                <node id="17" x="+3000" y="-0" type="traffic_light" tl="7"/>
                <node id="18" x="+3500" y="-0" type="traffic_light" tl="8"/>
                <node id="19" x="+4000" y="-0" type="traffic_light" tl="9"/>
                <node id="20" x="+4500" y="-0" type="traffic_light" tl="10"/>
                <node id="21" x="+0" y="-500" type="traffic_light" tl="11"/>
                <node id="22" x="+500" y="-500" type="traffic_light" tl="12"/>
                <node id="23" x="+1000" y="-500" type="traffic_light" tl="13"/>
                <node id="24" x="+1500" y="-500" type="traffic_light" tl="14"/>
                <node id="25" x="+2000" y="-500" type="traffic_light" tl="15"/>
                <node id="26" x="+2500" y="-500" type="traffic_light" tl="16"/>
                <node id="27" x="+3000" y="-500" type="traffic_light" tl="17"/>
                <node id="28" x="+3500" y="-500" type="traffic_light" tl="18"/>
                <node id="29" x="+4000" y="-500" type="traffic_light" tl="19"/>
                <node id="30" x="+4500" y="-500" type="traffic_light" tl="20"/>
                <node id="31" x="+0" y="-1000" type="traffic_light" tl="21"/>
                <node id="32" x="+500" y="-1000" type="traffic_light" tl="22"/>
                <node id="33" x="+1000" y="-1000" type="traffic_light" tl="23"/>
                <node id="34" x="+1500" y="-1000" type="traffic_light" tl="24"/>
                <node id="35" x="+2000" y="-1000" type="traffic_light" tl="25"/>
                <node id="36" x="+2500" y="-1000" type="traffic_light" tl="26"/>
                <node id="37" x="+3000" y="-1000" type="traffic_light" tl="27"/>
                <node id="38" x="+3500" y="-1000" type="traffic_light" tl="28"/>
                <node id="39" x="+4000" y="-1000" type="traffic_light" tl="29"/>
                <node id="40" x="+4500" y="-1000" type="traffic_light" tl="30"/>
                <node id="41" x="+0" y="-1500" type="traffic_light" tl="31"/>
                <node id="42" x="+500" y="-1500" type="traffic_light" tl="32"/>
                <node id="43" x="+1000" y="-1500" type="traffic_light" tl="33"/>
                <node id="44" x="+1500" y="-1500" type="traffic_light" tl="34"/>
                <node id="45" x="+2000" y="-1500" type="traffic_light" tl="35"/>
                <node id="46" x="+2500" y="-1500" type="traffic_light" tl="36"/>
                <node id="47" x="+3000" y="-1500" type="traffic_light" tl="37"/>
                <node id="48" x="+3500" y="-1500" type="traffic_light" tl="38"/>
                <node id="49" x="+4000" y="-1500" type="traffic_light" tl="39"/>
                <node id="50" x="+4500" y="-1500" type="traffic_light" tl="40"/>
                <node id="51" x="+0" y="-2000" type="traffic_light" tl="41"/>
                <node id="52" x="+500" y="-2000" type="traffic_light" tl="42"/>
                <node id="53" x="+1000" y="-2000" type="traffic_light" tl="43"/>
                <node id="54" x="+1500" y="-2000" type="traffic_light" tl="44"/>
                <node id="55" x="+2000" y="-2000" type="traffic_light" tl="45"/>
                <node id="56" x="+2500" y="-2000" type="traffic_light" tl="46"/>
                <node id="57" x="+3000" y="-2000" type="traffic_light" tl="47"/>
                <node id="58" x="+3500" y="-2000" type="traffic_light" tl="48"/>
                <node id="59" x="+4000" y="-2000" type="traffic_light" tl="49"/>
                <node id="60" x="+4500" y="-2000" type="traffic_light" tl="50"/>
                <node id="61" x="+0" y="-2500" type="traffic_light" tl="51"/>
                <node id="62" x="+500" y="-2500" type="traffic_light" tl="52"/>
                <node id="63" x="+1000" y="-2500" type="traffic_light" tl="53"/>
                <node id="64" x="+1500" y="-2500" type="traffic_light" tl="54"/>
                <node id="65" x="+2000" y="-2500" type="traffic_light" tl="55"/>
                <node id="66" x="+2500" y="-2500" type="traffic_light" tl="56"/>
                <node id="67" x="+3000" y="-2500" type="traffic_light" tl="57"/>
                <node id="68" x="+3500" y="-2500" type="traffic_light" tl="58"/>
                <node id="69" x="+4000" y="-2500" type="traffic_light" tl="59"/>
                <node id="70" x="+4500" y="-2500" type="traffic_light" tl="60"/>
                <node id="71" x="+0" y="-3000" type="traffic_light" tl="61"/>
                <node id="72" x="+500" y="-3000" type="traffic_light" tl="62"/>
                <node id="73" x="+1000" y="-3000" type="traffic_light" tl="63"/>
                <node id="74" x="+1500" y="-3000" type="traffic_light" tl="64"/>
                <node id="75" x="+2000" y="-3000" type="traffic_light" tl="65"/>
                <node id="76" x="+2500" y="-3000" type="traffic_light" tl="66"/>
                <node id="77" x="+3000" y="-3000" type="traffic_light" tl="67"/>
                <node id="78" x="+3500" y="-3000" type="traffic_light" tl="68"/>
                <node id="79" x="+4000" y="-3000" type="traffic_light" tl="69"/>
                <node id="80" x="+4500" y="-3000" type="traffic_light" tl="70"/>
                <node id="81" x="+0" y="-3500" type="traffic_light" tl="71"/>
                <node id="82" x="+500" y="-3500" type="traffic_light" tl="72"/>
                <node id="83" x="+1000" y="-3500" type="traffic_light" tl="73"/>
                <node id="84" x="+1500" y="-3500" type="traffic_light" tl="74"/>
                <node id="85" x="+2000" y="-3500" type="traffic_light" tl="75"/>
                <node id="86" x="+2500" y="-3500" type="traffic_light" tl="76"/>
                <node id="87" x="+3000" y="-3500" type="traffic_light" tl="77"/>
                <node id="88" x="+3500" y="-3500" type="traffic_light" tl="78"/>
                <node id="89" x="+4000" y="-3500" type="traffic_light" tl="79"/>
                <node id="90" x="+4500" y="-3500" type="traffic_light" tl="80"/>
                <node id="91" x="+0" y="-4000" type="traffic_light" tl="81"/>
                <node id="92" x="+500" y="-4000" type="traffic_light" tl="82"/>
                <node id="93" x="+1000" y="-4000" type="traffic_light" tl="83"/>
                <node id="94" x="+1500" y="-4000" type="traffic_light" tl="84"/>
                <node id="95" x="+2000" y="-4000" type="traffic_light" tl="85"/>
                <node id="96" x="+2500" y="-4000" type="traffic_light" tl="86"/>
                <node id="97" x="+3000" y="-4000" type="traffic_light" tl="87"/>
                <node id="98" x="+3500" y="-4000" type="traffic_light" tl="88"/>
                <node id="99" x="+4000" y="-4000" type="traffic_light" tl="89"/>
                <node id="100" x="+4500" y="-4000" type="traffic_light" tl="90"/>
                <node id="101" x="+0" y="-4500" type="traffic_light" tl="91"/>
                <node id="102" x="+500" y="-4500" type="traffic_light" tl="92"/>
                <node id="103" x="+1000" y="-4500" type="traffic_light" tl="93"/>
                <node id="104" x="+1500" y="-4500" type="traffic_light" tl="94"/>
                <node id="105" x="+2000" y="-4500" type="traffic_light" tl="95"/>
                <node id="106" x="+2500" y="-4500" type="traffic_light" tl="96"/>
                <node id="107" x="+3000" y="-4500" type="traffic_light" tl="97"/>
                <node id="108" x="+3500" y="-4500" type="traffic_light" tl="98"/>
                <node id="109" x="+4000" y="-4500" type="traffic_light" tl="99"/>
                <node id="110" x="+4500" y="-4500" type="traffic_light" tl="100"/>
</nodes>
