<routes>
              <vType id="Car0" carFollowModel="Krauss" accel="2.6" decel="4.5" tau="1.5" sigma="0.5" length="5" minGap="2.5" maxSpeed="18"/>
              <vType id="Car1" carFollowModel="Krauss" accel="3.05" decel="4.5" tau="1.2" sigma="0.4" length="5" minGap="2" maxSpeed="18"/>
              <vType id="Car2" carFollowModel="Krauss" accel="3.5" decel="4.5" tau="1.0" sigma="0.3" length="5" minGap="1.5" maxSpeed="18"/>
              <vType id="Car3" carFollowModel="Krauss" accel="3.6" decel="4.5" tau="0.8" sigma="0.2" length="5" minGap="1.25" maxSpeed="18"/>
              <vType id="Car4" carFollowModel="Krauss" accel="3.7" decel="4.5" tau="0.7" sigma="0" length="5" minGap="0.75" maxSpeed="18"/>
              <vType id="Car5" carFollowModel="Krauss" accel="3.8" decel="4.5" tau="0.6" sigma="0" length="5" minGap="0.5" maxSpeed="18"/>
              <vehicles>
                <flow id="F12131" begin="0" end="360" vehsPerHour="35" type="Car5" departLane="random" departSpeed="random" from="12022" to="23013"/>
                <flow id="F12141" begin="0" end="360" vehsPerHour="25" type="Car5" departLane="random" departSpeed="random" from="12022" to="24014"/>
                <flow id="F12151" begin="0" end="360" vehsPerHour="26" type="Car5" departLane="random" departSpeed="random" from="12022" to="25015"/>
                <flow id="F12161" begin="0" end="360" vehsPerHour="50" type="Car5" departLane="random" departSpeed="random" from="12022" to="26016"/>
                <flow id="F12171" begin="0" end="360" vehsPerHour="34" type="Car5" departLane="random" departSpeed="random" from="12022" to="27017"/>
                <flow id="F12181" begin="0" end="360" vehsPerHour="50" type="Car5" departLane="random" departSpeed="random" from="12022" to="28018"/>
                <flow id="F12191" begin="0" end="360" vehsPerHour="14" type="Car5" departLane="random" departSpeed="random" from="12022" to="29019"/>
                <flow id="F13021" begin="0" end="360" vehsPerHour="50" type="Car5" departLane="random" departSpeed="random" from="12022" to="92102"/>
                <flow id="F13031" begin="0" end="360" vehsPerHour="57" type="Car5" departLane="random" departSpeed="random" from="12022" to="93103"/>
                <flow id="F13041" begin="0" end="360" vehsPerHour="49" type="Car5" departLane="random" departSpeed="random" from="12022" to="94104"/>
                <flow id="F13051" begin="0" end="360" vehsPerHour="25" type="Car5" departLane="random" departSpeed="random" from="12022" to="95105"/>
                <flow id="F13061" begin="0" end="360" vehsPerHour="42" type="Car5" departLane="random" departSpeed="random" from="12022" to="96106"/>
                <flow id="F13071" begin="0" end="360" vehsPerHour="11" type="Car5" departLane="random" departSpeed="random" from="12022" to="97107"/>
                <flow id="F13081" begin="0" end="360" vehsPerHour="51" type="Car5" departLane="random" departSpeed="random" from="12022" to="98108"/>
                <flow id="F13091" begin="0" end="360" vehsPerHour="16" type="Car5" departLane="random" departSpeed="random" from="12022" to="99109"/>
                <flow id="F12211" begin="0" end="360" vehsPerHour="44" type="Car5" departLane="random" departSpeed="random" from="12022" to="22021"/>
                <flow id="F12311" begin="0" end="360" vehsPerHour="55" type="Car5" departLane="random" departSpeed="random" from="12022" to="32031"/>
                <flow id="F12411" begin="0" end="360" vehsPerHour="61" type="Car5" departLane="random" departSpeed="random" from="12022" to="42041"/>
                <flow id="F12511" begin="0" end="360" vehsPerHour="21" type="Car5" departLane="random" departSpeed="random" from="12022" to="52051"/>
                <flow id="F12611" begin="0" end="360" vehsPerHour="23" type="Car5" departLane="random" departSpeed="random" from="12022" to="62061"/>
                <flow id="F12711" begin="0" end="360" vehsPerHour="14" type="Car5" departLane="random" departSpeed="random" from="12022" to="72071"/>
                <flow id="F12811" begin="0" end="360" vehsPerHour="25" type="Car5" departLane="random" departSpeed="random" from="12022" to="82081"/>
                <flow id="F12911" begin="0" end="360" vehsPerHour="64" type="Car5" departLane="random" departSpeed="random" from="12022" to="92091"/>
                <flow id="F12301" begin="0" end="360" vehsPerHour="22" type="Car5" departLane="random" departSpeed="random" from="12022" to="29030"/>
                <flow id="F12401" begin="0" end="360" vehsPerHour="46" type="Car5" departLane="random" departSpeed="random" from="12022" to="39040"/>
                <flow id="F12501" begin="0" end="360" vehsPerHour="48" type="Car5" departLane="random" departSpeed="random" from="12022" to="49050"/>
                <flow id="F12601" begin="0" end="360" vehsPerHour="17" type="Car5" departLane="random" departSpeed="random" from="12022" to="59060"/>
                <flow id="F12701" begin="0" end="360" vehsPerHour="24" type="Car5" departLane="random" departSpeed="random" from="12022" to="69070"/>
                <flow id="F12801" begin="0" end="360" vehsPerHour="52" type="Car5" departLane="random" departSpeed="random" from="12022" to="79080"/>
                <flow id="F12901" begin="0" end="360" vehsPerHour="36" type="Car5" departLane="random" departSpeed="random" from="12022" to="89090"/>
                <flow id="F13001" begin="0" end="360" vehsPerHour="59" type="Car5" departLane="random" departSpeed="random" from="12022" to="99100"/>
                <flow id="F13121" begin="0" end="360" vehsPerHour="46" type="Car5" departLane="random" departSpeed="random" from="13023" to="22012"/>
                <flow id="F13141" begin="0" end="360" vehsPerHour="60" type="Car5" departLane="random" departSpeed="random" from="13023" to="24014"/>
                <flow id="F13151" begin="0" end="360" vehsPerHour="46" type="Car5" departLane="random" departSpeed="random" from="13023" to="25015"/>
                <flow id="F13161" begin="0" end="360" vehsPerHour="35" type="Car5" departLane="random" departSpeed="random" from="13023" to="26016"/>
                <flow id="F13171" begin="0" end="360" vehsPerHour="57" type="Car5" departLane="random" departSpeed="random" from="13023" to="27017"/>
                <flow id="F13181" begin="0" end="360" vehsPerHour="13" type="Car5" departLane="random" departSpeed="random" from="13023" to="28018"/>
                <flow id="F13191" begin="0" end="360" vehsPerHour="57" type="Car5" departLane="random" departSpeed="random" from="13023" to="29019"/>
                <flow id="F14021" begin="0" end="360" vehsPerHour="57" type="Car5" departLane="random" departSpeed="random" from="13023" to="92102"/>
                <flow id="F14031" begin="0" end="360" vehsPerHour="18" type="Car5" departLane="random" departSpeed="random" from="13023" to="93103"/>
                <flow id="F14041" begin="0" end="360" vehsPerHour="18" type="Car5" departLane="random" departSpeed="random" from="13023" to="94104"/>
                <flow id="F14051" begin="0" end="360" vehsPerHour="18" type="Car5" departLane="random" departSpeed="random" from="13023" to="95105"/>
                <flow id="F14061" begin="0" end="360" vehsPerHour="30" type="Car5" departLane="random" departSpeed="random" from="13023" to="96106"/>
                <flow id="F14071" begin="0" end="360" vehsPerHour="45" type="Car5" departLane="random" departSpeed="random" from="13023" to="97107"/>
                <flow id="F14081" begin="0" end="360" vehsPerHour="45" type="Car5" departLane="random" departSpeed="random" from="13023" to="98108"/>
                <flow id="F14091" begin="0" end="360" vehsPerHour="60" type="Car5" departLane="random" departSpeed="random" from="13023" to="99109"/>
                <flow id="F13211" begin="0" end="360" vehsPerHour="30" type="Car5" departLane="random" departSpeed="random" from="13023" to="22021"/>
                <flow id="F13311" begin="0" end="360" vehsPerHour="49" type="Car5" departLane="random" departSpeed="random" from="13023" to="32031"/>
                <flow id="F13411" begin="0" end="360" vehsPerHour="64" type="Car5" departLane="random" departSpeed="random" from="13023" to="42041"/>
                <flow id="F13511" begin="0" end="360" vehsPerHour="32" type="Car5" departLane="random" departSpeed="random" from="13023" to="52051"/>
                <flow id="F13611" begin="0" end="360" vehsPerHour="26" type="Car5" departLane="random" departSpeed="random" from="13023" to="62061"/>
                <flow id="F13711" begin="0" end="360" vehsPerHour="33" type="Car5" departLane="random" departSpeed="random" from="13023" to="72071"/>
                <flow id="F13811" begin="0" end="360" vehsPerHour="10" type="Car5" departLane="random" departSpeed="random" from="13023" to="82081"/>
                <flow id="F13911" begin="0" end="360" vehsPerHour="2" type="Car5" departLane="random" departSpeed="random" from="13023" to="92091"/>
                <flow id="F13301" begin="0" end="360" vehsPerHour="9" type="Car5" departLane="random" departSpeed="random" from="13023" to="29030"/>
                <flow id="F13401" begin="0" end="360" vehsPerHour="14" type="Car5" departLane="random" departSpeed="random" from="13023" to="39040"/>
                <flow id="F13501" begin="0" end="360" vehsPerHour="41" type="Car5" departLane="random" departSpeed="random" from="13023" to="49050"/>
                <flow id="F13601" begin="0" end="360" vehsPerHour="31" type="Car5" departLane="random" departSpeed="random" from="13023" to="59060"/>
                <flow id="F13701" begin="0" end="360" vehsPerHour="57" type="Car5" departLane="random" departSpeed="random" from="13023" to="69070"/>
                <flow id="F13801" begin="0" end="360" vehsPerHour="43" type="Car5" departLane="random" departSpeed="random" from="13023" to="79080"/>
                <flow id="F13901" begin="0" end="360" vehsPerHour="53" type="Car5" departLane="random" departSpeed="random" from="13023" to="89090"/>
                <flow id="F14001" begin="0" end="360" vehsPerHour="38" type="Car5" departLane="random" departSpeed="random" from="13023" to="99100"/>
                <flow id="F14121" begin="0" end="360" vehsPerHour="36" type="Car5" departLane="random" departSpeed="random" from="14024" to="22012"/>
                <flow id="F14131" begin="0" end="360" vehsPerHour="59" type="Car5" departLane="random" departSpeed="random" from="14024" to="23013"/>
                <flow id="F14151" begin="0" end="360" vehsPerHour="30" type="Car5" departLane="random" departSpeed="random" from="14024" to="25015"/>
                <flow id="F14161" begin="0" end="360" vehsPerHour="50" type="Car5" departLane="random" departSpeed="random" from="14024" to="26016"/>
                <flow id="F14171" begin="0" end="360" vehsPerHour="53" type="Car5" departLane="random" departSpeed="random" from="14024" to="27017"/>
                <flow id="F14181" begin="0" end="360" vehsPerHour="7" type="Car5" departLane="random" departSpeed="random" from="14024" to="28018"/>
                <flow id="F14191" begin="0" end="360" vehsPerHour="24" type="Car5" departLane="random" departSpeed="random" from="14024" to="29019"/>
                <flow id="F15021" begin="0" end="360" vehsPerHour="34" type="Car5" departLane="random" departSpeed="random" from="14024" to="92102"/>
                <flow id="F15031" begin="0" end="360" vehsPerHour="55" type="Car5" departLane="random" departSpeed="random" from="14024" to="93103"/>
                <flow id="F15041" begin="0" end="360" vehsPerHour="18" type="Car5" departLane="random" departSpeed="random" from="14024" to="94104"/>
                <flow id="F15051" begin="0" end="360" vehsPerHour="23" type="Car5" departLane="random" departSpeed="random" from="14024" to="95105"/>
                <flow id="F15061" begin="0" end="360" vehsPerHour="25" type="Car5" departLane="random" departSpeed="random" from="14024" to="96106"/>
                <flow id="F15071" begin="0" end="360" vehsPerHour="52" type="Car5" departLane="random" departSpeed="random" from="14024" to="97107"/>
                <flow id="F15081" begin="0" end="360" vehsPerHour="36" type="Car5" departLane="random" departSpeed="random" from="14024" to="98108"/>
                <flow id="F15091" begin="0" end="360" vehsPerHour="49" type="Car5" departLane="random" departSpeed="random" from="14024" to="99109"/>
                <flow id="F14211" begin="0" end="360" vehsPerHour="63" type="Car5" departLane="random" departSpeed="random" from="14024" to="22021"/>
                <flow id="F14311" begin="0" end="360" vehsPerHour="18" type="Car5" departLane="random" departSpeed="random" from="14024" to="32031"/>
                <flow id="F14411" begin="0" end="360" vehsPerHour="54" type="Car5" departLane="random" departSpeed="random" from="14024" to="42041"/>
                <flow id="F14511" begin="0" end="360" vehsPerHour="15" type="Car5" departLane="random" departSpeed="random" from="14024" to="52051"/>
                <flow id="F14611" begin="0" end="360" vehsPerHour="53" type="Car5" departLane="random" departSpeed="random" from="14024" to="62061"/>
                <flow id="F14711" begin="0" end="360" vehsPerHour="32" type="Car5" departLane="random" departSpeed="random" from="14024" to="72071"/>
                <flow id="F14811" begin="0" end="360" vehsPerHour="29" type="Car5" departLane="random" departSpeed="random" from="14024" to="82081"/>
                <flow id="F14911" begin="0" end="360" vehsPerHour="49" type="Car5" departLane="random" departSpeed="random" from="14024" to="92091"/>
                <flow id="F14301" begin="0" end="360" vehsPerHour="60" type="Car5" departLane="random" departSpeed="random" from="14024" to="29030"/>
                <flow id="F14401" begin="0" end="360" vehsPerHour="49" type="Car5" departLane="random" departSpeed="random" from="14024" to="39040"/>
                <flow id="F14501" begin="0" end="360" vehsPerHour="29" type="Car5" departLane="random" departSpeed="random" from="14024" to="49050"/>
                <flow id="F14601" begin="0" end="360" vehsPerHour="62" type="Car5" departLane="random" departSpeed="random" from="14024" to="59060"/>
                <flow id="F14701" begin="0" end="360" vehsPerHour="37" type="Car5" departLane="random" departSpeed="random" from="14024" to="69070"/>
                <flow id="F14801" begin="0" end="360" vehsPerHour="17" type="Car5" departLane="random" departSpeed="random" from="14024" to="79080"/>
                <flow id="F14901" begin="0" end="360" vehsPerHour="53" type="Car5" departLane="random" departSpeed="random" from="14024" to="89090"/>
                <flow id="F15001" begin="0" end="360" vehsPerHour="9" type="Car5" departLane="random" departSpeed="random" from="14024" to="99100"/>
                <flow id="F15121" begin="0" end="360" vehsPerHour="13" type="Car5" departLane="random" departSpeed="random" from="15025" to="22012"/>
                <flow id="F15131" begin="0" end="360" vehsPerHour="19" type="Car5" departLane="random" departSpeed="random" from="15025" to="23013"/>
                <flow id="F15141" begin="0" end="360" vehsPerHour="36" type="Car5" departLane="random" departSpeed="random" from="15025" to="24014"/>
                <flow id="F15161" begin="0" end="360" vehsPerHour="41" type="Car5" departLane="random" departSpeed="random" from="15025" to="26016"/>
                <flow id="F15171" begin="0" end="360" vehsPerHour="2" type="Car5" departLane="random" departSpeed="random" from="15025" to="27017"/>
                <flow id="F15181" begin="0" end="360" vehsPerHour="29" type="Car5" departLane="random" departSpeed="random" from="15025" to="28018"/>
                <flow id="F15191" begin="0" end="360" vehsPerHour="3" type="Car5" departLane="random" departSpeed="random" from="15025" to="29019"/>
                <flow id="F16021" begin="0" end="360" vehsPerHour="58" type="Car5" departLane="random" departSpeed="random" from="15025" to="92102"/>
                <flow id="F16031" begin="0" end="360" vehsPerHour="45" type="Car5" departLane="random" departSpeed="random" from="15025" to="93103"/>
                <flow id="F16041" begin="0" end="360" vehsPerHour="24" type="Car5" departLane="random" departSpeed="random" from="15025" to="94104"/>
                <flow id="F16051" begin="0" end="360" vehsPerHour="53" type="Car5" departLane="random" departSpeed="random" from="15025" to="95105"/>
                <flow id="F16061" begin="0" end="360" vehsPerHour="52" type="Car5" departLane="random" departSpeed="random" from="15025" to="96106"/>
                <flow id="F16071" begin="0" end="360" vehsPerHour="16" type="Car5" departLane="random" departSpeed="random" from="15025" to="97107"/>
                <flow id="F16081" begin="0" end="360" vehsPerHour="43" type="Car5" departLane="random" departSpeed="random" from="15025" to="98108"/>
                <flow id="F16091" begin="0" end="360" vehsPerHour="65" type="Car5" departLane="random" departSpeed="random" from="15025" to="99109"/>
                <flow id="F15211" begin="0" end="360" vehsPerHour="66" type="Car5" departLane="random" departSpeed="random" from="15025" to="22021"/>
                <flow id="F15311" begin="0" end="360" vehsPerHour="33" type="Car5" departLane="random" departSpeed="random" from="15025" to="32031"/>
                <flow id="F15411" begin="0" end="360" vehsPerHour="24" type="Car5" departLane="random" departSpeed="random" from="15025" to="42041"/>
                <flow id="F15511" begin="0" end="360" vehsPerHour="50" type="Car5" departLane="random" departSpeed="random" from="15025" to="52051"/>
                <flow id="F15611" begin="0" end="360" vehsPerHour="41" type="Car5" departLane="random" departSpeed="random" from="15025" to="62061"/>
                <flow id="F15711" begin="0" end="360" vehsPerHour="27" type="Car5" departLane="random" departSpeed="random" from="15025" to="72071"/>
                <flow id="F15811" begin="0" end="360" vehsPerHour="51" type="Car5" departLane="random" departSpeed="random" from="15025" to="82081"/>
                <flow id="F15911" begin="0" end="360" vehsPerHour="12" type="Car5" departLane="random" departSpeed="random" from="15025" to="92091"/>
                <flow id="F15301" begin="0" end="360" vehsPerHour="31" type="Car5" departLane="random" departSpeed="random" from="15025" to="29030"/>
                <flow id="F15401" begin="0" end="360" vehsPerHour="19" type="Car5" departLane="random" departSpeed="random" from="15025" to="39040"/>
                <flow id="F15501" begin="0" end="360" vehsPerHour="2" type="Car5" departLane="random" departSpeed="random" from="15025" to="49050"/>
                <flow id="F15601" begin="0" end="360" vehsPerHour="47" type="Car5" departLane="random" departSpeed="random" from="15025" to="59060"/>
                <flow id="F15701" begin="0" end="360" vehsPerHour="34" type="Car5" departLane="random" departSpeed="random" from="15025" to="69070"/>
                <flow id="F15801" begin="0" end="360" vehsPerHour="8" type="Car5" departLane="random" departSpeed="random" from="15025" to="79080"/>
                <flow id="F15901" begin="0" end="360" vehsPerHour="63" type="Car5" departLane="random" departSpeed="random" from="15025" to="89090"/>
                <flow id="F16001" begin="0" end="360" vehsPerHour="10" type="Car5" departLane="random" departSpeed="random" from="15025" to="99100"/>
                <flow id="F16121" begin="0" end="360" vehsPerHour="7" type="Car5" departLane="random" departSpeed="random" from="16026" to="22012"/>
                <flow id="F16131" begin="0" end="360" vehsPerHour="43" type="Car5" departLane="random" departSpeed="random" from="16026" to="23013"/>
                <flow id="F16141" begin="0" end="360" vehsPerHour="14" type="Car5" departLane="random" departSpeed="random" from="16026" to="24014"/>
                <flow id="F16151" begin="0" end="360" vehsPerHour="52" type="Car5" departLane="random" departSpeed="random" from="16026" to="25015"/>
                <flow id="F16171" begin="0" end="360" vehsPerHour="65" type="Car5" departLane="random" departSpeed="random" from="16026" to="27017"/>
                <flow id="F16181" begin="0" end="360" vehsPerHour="45" type="Car5" departLane="random" departSpeed="random" from="16026" to="28018"/>
                <flow id="F16191" begin="0" end="360" vehsPerHour="56" type="Car5" departLane="random" departSpeed="random" from="16026" to="29019"/>
                <flow id="F17021" begin="0" end="360" vehsPerHour="28" type="Car5" departLane="random" departSpeed="random" from="16026" to="92102"/>
                <flow id="F17031" begin="0" end="360" vehsPerHour="27" type="Car5" departLane="random" departSpeed="random" from="16026" to="93103"/>
                <flow id="F17041" begin="0" end="360" vehsPerHour="19" type="Car5" departLane="random" departSpeed="random" from="16026" to="94104"/>
                <flow id="F17051" begin="0" end="360" vehsPerHour="35" type="Car5" departLane="random" departSpeed="random" from="16026" to="95105"/>
                <flow id="F17061" begin="0" end="360" vehsPerHour="4" type="Car5" departLane="random" departSpeed="random" from="16026" to="96106"/>
                <flow id="F17071" begin="0" end="360" vehsPerHour="14" type="Car5" departLane="random" departSpeed="random" from="16026" to="97107"/>
                <flow id="F17081" begin="0" end="360" vehsPerHour="45" type="Car5" departLane="random" departSpeed="random" from="16026" to="98108"/>
                <flow id="F17091" begin="0" end="360" vehsPerHour="62" type="Car5" departLane="random" departSpeed="random" from="16026" to="99109"/>
                <flow id="F16211" begin="0" end="360" vehsPerHour="28" type="Car5" departLane="random" departSpeed="random" from="16026" to="22021"/>
                <flow id="F16311" begin="0" end="360" vehsPerHour="20" type="Car5" departLane="random" departSpeed="random" from="16026" to="32031"/>
                <flow id="F16411" begin="0" end="360" vehsPerHour="65" type="Car5" departLane="random" departSpeed="random" from="16026" to="42041"/>
                <flow id="F16511" begin="0" end="360" vehsPerHour="8" type="Car5" departLane="random" departSpeed="random" from="16026" to="52051"/>
                <flow id="F16611" begin="0" end="360" vehsPerHour="11" type="Car5" departLane="random" departSpeed="random" from="16026" to="62061"/>
                <flow id="F16711" begin="0" end="360" vehsPerHour="46" type="Car5" departLane="random" departSpeed="random" from="16026" to="72071"/>
                <flow id="F16811" begin="0" end="360" vehsPerHour="36" type="Car5" departLane="random" departSpeed="random" from="16026" to="82081"/>
                <flow id="F16911" begin="0" end="360" vehsPerHour="55" type="Car5" departLane="random" departSpeed="random" from="16026" to="92091"/>
                <flow id="F16301" begin="0" end="360" vehsPerHour="51" type="Car5" departLane="random" departSpeed="random" from="16026" to="29030"/>
                <flow id="F16401" begin="0" end="360" vehsPerHour="45" type="Car5" departLane="random" departSpeed="random" from="16026" to="39040"/>
                <flow id="F16501" begin="0" end="360" vehsPerHour="44" type="Car5" departLane="random" departSpeed="random" from="16026" to="49050"/>
                <flow id="F16601" begin="0" end="360" vehsPerHour="21" type="Car5" departLane="random" departSpeed="random" from="16026" to="59060"/>
                <flow id="F16701" begin="0" end="360" vehsPerHour="15" type="Car5" departLane="random" departSpeed="random" from="16026" to="69070"/>
                <flow id="F16801" begin="0" end="360" vehsPerHour="11" type="Car5" departLane="random" departSpeed="random" from="16026" to="79080"/>
                <flow id="F16901" begin="0" end="360" vehsPerHour="27" type="Car5" departLane="random" departSpeed="random" from="16026" to="89090"/>
                <flow id="F17001" begin="0" end="360" vehsPerHour="21" type="Car5" departLane="random" departSpeed="random" from="16026" to="99100"/>
                <flow id="F17121" begin="0" end="360" vehsPerHour="21" type="Car5" departLane="random" departSpeed="random" from="17027" to="22012"/>
                <flow id="F17131" begin="0" end="360" vehsPerHour="10" type="Car5" departLane="random" departSpeed="random" from="17027" to="23013"/>
                <flow id="F17141" begin="0" end="360" vehsPerHour="45" type="Car5" departLane="random" departSpeed="random" from="17027" to="24014"/>
                <flow id="F17151" begin="0" end="360" vehsPerHour="65" type="Car5" departLane="random" departSpeed="random" from="17027" to="25015"/>
                <flow id="F17161" begin="0" end="360" vehsPerHour="5" type="Car5" departLane="random" departSpeed="random" from="17027" to="26016"/>
                <flow id="F17181" begin="0" end="360" vehsPerHour="41" type="Car5" departLane="random" departSpeed="random" from="17027" to="28018"/>
                <flow id="F17191" begin="0" end="360" vehsPerHour="16" type="Car5" departLane="random" departSpeed="random" from="17027" to="29019"/>
                <flow id="F18021" begin="0" end="360" vehsPerHour="36" type="Car5" departLane="random" departSpeed="random" from="17027" to="92102"/>
                <flow id="F18031" begin="0" end="360" vehsPerHour="57" type="Car5" departLane="random" departSpeed="random" from="17027" to="93103"/>
                <flow id="F18041" begin="0" end="360" vehsPerHour="24" type="Car5" departLane="random" departSpeed="random" from="17027" to="94104"/>
                <flow id="F18051" begin="0" end="360" vehsPerHour="63" type="Car5" departLane="random" departSpeed="random" from="17027" to="95105"/>
                <flow id="F18061" begin="0" end="360" vehsPerHour="65" type="Car5" departLane="random" departSpeed="random" from="17027" to="96106"/>
                <flow id="F18071" begin="0" end="360" vehsPerHour="2" type="Car5" departLane="random" departSpeed="random" from="17027" to="97107"/>
                <flow id="F18081" begin="0" end="360" vehsPerHour="2" type="Car5" departLane="random" departSpeed="random" from="17027" to="98108"/>
                <flow id="F18091" begin="0" end="360" vehsPerHour="12" type="Car5" departLane="random" departSpeed="random" from="17027" to="99109"/>
                <flow id="F17211" begin="0" end="360" vehsPerHour="40" type="Car5" departLane="random" departSpeed="random" from="17027" to="22021"/>
                <flow id="F17311" begin="0" end="360" vehsPerHour="32" type="Car5" departLane="random" departSpeed="random" from="17027" to="32031"/>
                <flow id="F17411" begin="0" end="360" vehsPerHour="55" type="Car5" departLane="random" departSpeed="random" from="17027" to="42041"/>
                <flow id="F17511" begin="0" end="360" vehsPerHour="39" type="Car5" departLane="random" departSpeed="random" from="17027" to="52051"/>
                <flow id="F17611" begin="0" end="360" vehsPerHour="30" type="Car5" departLane="random" departSpeed="random" from="17027" to="62061"/>
                <flow id="F17711" begin="0" end="360" vehsPerHour="57" type="Car5" departLane="random" departSpeed="random" from="17027" to="72071"/>
                <flow id="F17811" begin="0" end="360" vehsPerHour="24" type="Car5" departLane="random" departSpeed="random" from="17027" to="82081"/>
                <flow id="F17911" begin="0" end="360" vehsPerHour="46" type="Car5" departLane="random" departSpeed="random" from="17027" to="92091"/>
                <flow id="F17301" begin="0" end="360" vehsPerHour="23" type="Car5" departLane="random" departSpeed="random" from="17027" to="29030"/>
                <flow id="F17401" begin="0" end="360" vehsPerHour="11" type="Car5" departLane="random" departSpeed="random" from="17027" to="39040"/>
                <flow id="F17501" begin="0" end="360" vehsPerHour="4" type="Car5" departLane="random" departSpeed="random" from="17027" to="49050"/>
                <flow id="F17601" begin="0" end="360" vehsPerHour="7" type="Car5" departLane="random" departSpeed="random" from="17027" to="59060"/>
                <flow id="F17701" begin="0" end="360" vehsPerHour="17" type="Car5" departLane="random" departSpeed="random" from="17027" to="69070"/>
                <flow id="F17801" begin="0" end="360" vehsPerHour="61" type="Car5" departLane="random" departSpeed="random" from="17027" to="79080"/>
                <flow id="F17901" begin="0" end="360" vehsPerHour="46" type="Car5" departLane="random" departSpeed="random" from="17027" to="89090"/>
                <flow id="F18001" begin="0" end="360" vehsPerHour="50" type="Car5" departLane="random" departSpeed="random" from="17027" to="99100"/>
                <flow id="F18121" begin="0" end="360" vehsPerHour="8" type="Car5" departLane="random" departSpeed="random" from="18028" to="22012"/>
                <flow id="F18131" begin="0" end="360" vehsPerHour="27" type="Car5" departLane="random" departSpeed="random" from="18028" to="23013"/>
                <flow id="F18141" begin="0" end="360" vehsPerHour="54" type="Car5" departLane="random" departSpeed="random" from="18028" to="24014"/>
                <flow id="F18151" begin="0" end="360" vehsPerHour="34" type="Car5" departLane="random" departSpeed="random" from="18028" to="25015"/>
                <flow id="F18161" begin="0" end="360" vehsPerHour="5" type="Car5" departLane="random" departSpeed="random" from="18028" to="26016"/>
                <flow id="F18171" begin="0" end="360" vehsPerHour="34" type="Car5" departLane="random" departSpeed="random" from="18028" to="27017"/>