<?xml version="1.0" encoding="UTF-8"?>
<edges  xmlns:xsi="http://www.w3.org/2001/XMLSchema-instance" xsi:noNamespaceSchemaLocation="http://sumo.dlr.de/xsd/edges_file.xsd">
                <edge id="21022" from="21" to="22" priority="1" numLanes="4" speed="18" />
                <edge id="22021" from="22" to="21" priority="1" numLanes="4" speed="18" />
                <edge id="22023" from="22" to="23" priority="1" numLanes="4" speed="18" />
                <edge id="23022" from="23" to="22" priority="1" numLanes="4" speed="18" />
                <edge id="23024" from="23" to="24" priority="1" numLanes="4" speed="18" />
                <edge id="24023" from="24" to="23" priority="1" numLanes="4" speed="18" />
                <edge id="24025" from="24" to="25" priority="1" numLanes="4" speed="18" />
                <edge id="25024" from="25" to="24" priority="1" numLanes="4" speed="18" />
                <edge id="25026" from="25" to="26" priority="1" numLanes="4" speed="18" />
                <edge id="26025" from="26" to="25" priority="1" numLanes="4" speed="18" />
                <edge id="26027" from="26" to="27" priority="1" numLanes="4" speed="18" />
                <edge id="27026" from="27" to="26" priority="1" numLanes="4" speed="18" />
                <edge id="27028" from="27" to="28" priority="1" numLanes="4" speed="18" />
                <edge id="28027" from="28" to="27" priority="1" numLanes="4" speed="18" />
                <edge id="28029" from="28" to="29" priority="1" numLanes="4" speed="18" />
                <edge id="29028" from="29" to="28" priority="1" numLanes="4" speed="18" />
                <edge id="29030" from="29" to="30" priority="1" numLanes="4" speed="18" />
                <edge id="30029" from="30" to="29" priority="1" numLanes="4" speed="18" />
                <edge id="31032" from="31" to="32" priority="1" numLanes="4" speed="18" />
                <edge id="32031" from="32" to="31" priority="1" numLanes="4" speed="18" />
                <edge id="32033" from="32" to="33" priority="1" numLanes="4" speed="18" />
                <edge id="33032" from="33" to="32" priority="1" numLanes="4" speed="18" />
                <edge id="33034" from="33" to="34" priority="1" numLanes="4" speed="18" />
                <edge id="34033" from="34" to="33" priority="1" numLanes="4" speed="18" />
                <edge id="34035" from="34" to="35" priority="1" numLanes="4" speed="18" />
                <edge id="35034" from="35" to="34" priority="1" numLanes="4" speed="18" />
                <edge id="35036" from="35" to="36" priority="1" numLanes="4" speed="18" />
                <edge id="36035" from="36" to="35" priority="1" numLanes="4" speed="18" />
                <edge id="36037" from="36" to="37" priority="1" numLanes="4" speed="18" />
                <edge id="37036" from="37" to="36" priority="1" numLanes="4" speed="18" />
                <edge id="37038" from="37" to="38" priority="1" numLanes="4" speed="18" />
                <edge id="38037" from="38" to="37" priority="1" numLanes="4" speed="18" />
                <edge id="38039" from="38" to="39" priority="1" numLanes="4" speed="18" />
                <edge id="39038" from="39" to="38" priority="1" numLanes="4" speed="18" />
                <edge id="39040" from="39" to="40" priority="1" numLanes="4" speed="18" />
                <edge id="40039" from="40" to="39" priority="1" numLanes="4" speed="18" />
                <edge id="41042" from="41" to="42" priority="1" numLanes="4" speed="18" />
                <edge id="42041" from="42" to="41" priority="1" numLanes="4" speed="18" />
                <edge id="42043" from="42" to="43" priority="1" numLanes="4" speed="18" />
                <edge id="43042" from="43" to="42" priority="1" numLanes="4" speed="18" />
                <edge id="43044" from="43" to="44" priority="1" numLanes="4" speed="18" />
                <edge id="44043" from="44" to="43" priority="1" numLanes="4" speed="18" />
                <edge id="44045" from="44" to="45" priority="1" numLanes="4" speed="18" />
                <edge id="45044" from="45" to="44" priority="1" numLanes="4" speed="18" />
                <edge id="45046" from="45" to="46" priority="1" numLanes="4" speed="18" />
                <edge id="46045" from="46" to="45" priority="1" numLanes="4" speed="18" />
                <edge id="46047" from="46" to="47" priority="1" numLanes="4" speed="18" />
                <edge id="47046" from="47" to="46" priority="1" numLanes="4" speed="18" />
                <edge id="47048" from="47" to="48" priority="1" numLanes="4" speed="18" />
                <edge id="48047" from="48" to="47" priority="1" numLanes="4" speed="18" />
                <edge id="48049" from="48" to="49" priority="1" numLanes="4" speed="18" />
                <edge id="49048" from="49" to="48" priority="1" numLanes="4" speed="18" />
                <edge id="49050" from="49" to="50" priority="1" numLanes="4" speed="18" />
                <edge id="50049" from="50" to="49" priority="1" numLanes="4" speed="18" />
                <edge id="51052" from="51" to="52" priority="1" numLanes="4" speed="18" />
                <edge id="52051" from="52" to="51" priority="1" numLanes="4" speed="18" />
                <edge id="52053" from="52" to="53" priority="1" numLanes="4" speed="18" />
                <edge id="53052" from="53" to="52" priority="1" numLanes="4" speed="18" />
                <edge id="53054" from="53" to="54" priority="1" numLanes="4" speed="18" />
                <edge id="54053" from="54" to="53" priority="1" numLanes="4" speed="18" />
                <edge id="54055" from="54" to="55" priority="1" numLanes="4" speed="18" />
                <edge id="55054" from="55" to="54" priority="1" numLanes="4" speed="18" />
                <edge id="55056" from="55" to="56" priority="1" numLanes="4" speed="18" />
                <edge id="56055" from="56" to="55" priority="1" numLanes="4" speed="18" />
                <edge id="56057" from="56" to="57" priority="1" numLanes="4" speed="18" />
                <edge id="57056" from="57" to="56" priority="1" numLanes="4" speed="18" />
                <edge id="57058" from="57" to="58" priority="1" numLanes="4" speed="18" />
                <edge id="58057" from="58" to="57" priority="1" numLanes="4" speed="18" />
                <edge id="58059" from="58" to="59" priority="1" numLanes="4" speed="18" />
                <edge id="59058" from="59" to="58" priority="1" numLanes="4" speed="18" />
                <edge id="59060" from="59" to="60" priority="1" numLanes="4" speed="18" />
                <edge id="60059" from="60" to="59" priority="1" numLanes="4" speed="18" />
                <edge id="61062" from="61" to="62" priority="1" numLanes="4" speed="18" />
                <edge id="62061" from="62" to="61" priority="1" numLanes="4" speed="18" />
                <edge id="62063" from="62" to="63" priority="1" numLanes="4" speed="18" />
                <edge id="63062" from="63" to="62" priority="1" numLanes="4" speed="18" />
                <edge id="63064" from="63" to="64" priority="1" numLanes="4" speed="18" />
                <edge id="64063" from="64" to="63" priority="1" numLanes="4" speed="18" />
                <edge id="64065" from="64" to="65" priority="1" numLanes="4" speed="18" />
                <edge id="65064" from="65" to="64" priority="1" numLanes="4" speed="18" />
                <edge id="65066" from="65" to="66" priority="1" numLanes="4" speed="18" />
                <edge id="66065" from="66" to="65" priority="1" numLanes="4" speed="18" />
                <edge id="66067" from="66" to="67" priority="1" numLanes="4" speed="18" />
                <edge id="67066" from="67" to="66" priority="1" numLanes="4" speed="18" />
                <edge id="67068" from="67" to="68" priority="1" numLanes="4" speed="18" />
                <edge id="68067" from="68" to="67" priority="1" numLanes="4" speed="18" />
                <edge id="68069" from="68" to="69" priority="1" numLanes="4" speed="18" />
                <edge id="69068" from="69" to="68" priority="1" numLanes="4" speed="18" />
                <edge id="69070" from="69" to="70" priority="1" numLanes="4" speed="18" />
                <edge id="70069" from="70" to="69" priority="1" numLanes="4" speed="18" />
                <edge id="71072" from="71" to="72" priority="1" numLanes="4" speed="18" />
                <edge id="72071" from="72" to="71" priority="1" numLanes="4" speed="18" />
                <edge id="72073" from="72" to="73" priority="1" numLanes="4" speed="18" />
                <edge id="73072" from="73" to="72" priority="1" numLanes="4" speed="18" />
                <edge id="73074" from="73" to="74" priority="1" numLanes="4" speed="18" />
                <edge id="74073" from="74" to="73" priority="1" numLanes="4" speed="18" />
                <edge id="74075" from="74" to="75" priority="1" numLanes="4" speed="18" />
                <edge id="75074" from="75" to="74" priority="1" numLanes="4" speed="18" />
                <edge id="75076" from="75" to="76" priority="1" numLanes="4" speed="18" />
                <edge id="76075" from="76" to="75" priority="1" numLanes="4" speed="18" />
                <edge id="76077" from="76" to="77" priority="1" numLanes="4" speed="18" />
                <edge id="77076" from="77" to="76" priority="1" numLanes="4" speed="18" />
                <edge id="77078" from="77" to="78" priority="1" numLanes="4" speed="18" />
                <edge id="78077" from="78" to="77" priority="1" numLanes="4" speed="18" />
                <edge id="78079" from="78" to="79" priority="1" numLanes="4" speed="18" />
                <edge id="79078" from="79" to="78" priority="1" numLanes="4" speed="18" />
                <edge id="79080" from="79" to="80" priority="1" numLanes="4" speed="18" />
                <edge id="80079" from="80" to="79" priority="1" numLanes="4" speed="18" />
                <edge id="81082" from="81" to="82" priority="1" numLanes="4" speed="18" />
                <edge id="82081" from="82" to="81" priority="1" numLanes="4" speed="18" />
                <edge id="82083" from="82" to="83" priority="1" numLanes="4" speed="18" />
                <edge id="83082" from="83" to="82" priority="1" numLanes="4" speed="18" />
                <edge id="83084" from="83" to="84" priority="1" numLanes="4" speed="18" />
                <edge id="84083" from="84" to="83" priority="1" numLanes="4" speed="18" />
                <edge id="84085" from="84" to="85" priority="1" numLanes="4" speed="18" />
                <edge id="85084" from="85" to="84" priority="1" numLanes="4" speed="18" />
                <edge id="85086" from="85" to="86" priority="1" numLanes="4" speed="18" />
                <edge id="86085" from="86" to="85" priority="1" numLanes="4" speed="18" />
                <edge id="86087" from="86" to="87" priority="1" numLanes="4" speed="18" />
                <edge id="87086" from="87" to="86" priority="1" numLanes="4" speed="18" />
                <edge id="87088" from="87" to="88" priority="1" numLanes="4" speed="18" />
                <edge id="88087" from="88" to="87" priority="1" numLanes="4" speed="18" />
                <edge id="88089" from="88" to="89" priority="1" numLanes="4" speed="18" />
                <edge id="89088" from="89" to="88" priority="1" numLanes="4" speed="18" />
                <edge id="89090" from="89" to="90" priority="1" numLanes="4" speed="18" />
                <edge id="90089" from="90" to="89" priority="1" numLanes="4" speed="18" />
                <edge id="91092" from="91" to="92" priority="1" numLanes="4" speed="18" />
                <edge id="92091" from="92" to="91" priority="1" numLanes="4" speed="18" />
                <edge id="92093" from="92" to="93" priority="1" numLanes="4" speed="18" />
                <edge id="93092" from="93" to="92" priority="1" numLanes="4" speed="18" />
                <edge id="93094" from="93" to="94" priority="1" numLanes="4" speed="18" />
                <edge id="94093" from="94" to="93" priority="1" numLanes="4" speed="18" />
                <edge id="94095" from="94" to="95" priority="1" numLanes="4" speed="18" />
                <edge id="95094" from="95" to="94" priority="1" numLanes="4" speed="18" />
                <edge id="95096" from="95" to="96" priority="1" numLanes="4" speed="18" />
                <edge id="96095" from="96" to="95" priority="1" numLanes="4" speed="18" />
                <edge id="96097" from="96" to="97" priority="1" numLanes="4" speed="18" />
                <edge id="97096" from="97" to="96" priority="1" numLanes="4" speed="18" />
                <edge id="97098" from="97" to="98" priority="1" numLanes="4" speed="18" />
                <edge id="98097" from="98" to="97" priority="1" numLanes="4" speed="18" />
                <edge id="98099" from="98" to="99" priority="1" numLanes="4" speed="18" />
                <edge id="99098" from="99" to="98" priority="1" numLanes="4" speed="18" />
                <edge id="99100" from="99" to="100" priority="1" numLanes="4" speed="18" />
                <edge id="100099" from="100" to="99" priority="1" numLanes="4" speed="18" />
                <edge id="12022" from="12" to="22" priority="1" numLanes="4" speed="18" />
                <edge id="22012" from="22" to="12" priority="1" numLanes="4" speed="18" />
                <edge id="22032" from="22" to="32" priority="1" numLanes="4" speed="18" />
                <edge id="32022" from="32" to="22" priority="1" numLanes="4" speed="18" />
                <edge id="32042" from="32" to="42" priority="1" numLanes="4" speed="18" />
                <edge id="42032" from="42" to="32" priority="1" numLanes="4" speed="18" />
                <edge id="42052" from="42" to="52" priority="1" numLanes="4" speed="18" />
                <edge id="52042" from="52" to="42" priority="1" numLanes="4" speed="18" />
                <edge id="52062" from="52" to="62" priority="1" numLanes="4" speed="18" />
                <edge id="62052" from="62" to="52" priority="1" numLanes="4" speed="18" />
                <edge id="62072" from="62" to="72" priority="1" numLanes="4" speed="18" />
                <edge id="72062" from="72" to="62" priority="1" numLanes="4" speed="18" />
                <edge id="72082" from="72" to="82" priority="1" numLanes="4" speed="18" />
                <edge id="82072" from="82" to="72" priority="1" numLanes="4" speed="18" />
                <edge id="82092" from="82" to="92" priority="1" numLanes="4" speed="18" />
                <edge id="92082" from="92" to="82" priority="1" numLanes="4" speed="18" />
                <edge id="92102" from="92" to="102" priority="1" numLanes="4" speed="18" />
                <edge id="102092" from="102" to="92" priority="1" numLanes="4" speed="18" />
                <edge id="13023" from="13" to="23" priority="1" numLanes="4" speed="18" />
                <edge id="23013" from="23" to="13" priority="1" numLanes="4" speed="18" />
                <edge id="23033" from="23" to="33" priority="1" numLanes="4" speed="18" />
                <edge id="33023" from="33" to="23" priority="1" numLanes="4" speed="18" />
                <edge id="33043" from="33" to="43" priority="1" numLanes="4" speed="18" />
                <edge id="43033" from="43" to="33" priority="1" numLanes="4" speed="18" />
                <edge id="43053" from="43" to="53" priority="1" numLanes="4" speed="18" />
                <edge id="53043" from="53" to="43" priority="1" numLanes="4" speed="18" />
                <edge id="53063" from="53" to="63" priority="1" numLanes="4" speed="18" />
                <edge id="63053" from="63" to="53" priority="1" numLanes="4" speed="18" />
                <edge id="63073" from="63" to="73" priority="1" numLanes="4" speed="18" />
                <edge id="73063" from="73" to="63" priority="1" numLanes="4" speed="18" />
                <edge id="73083" from="73" to="83" priority="1" numLanes="4" speed="18" />
                <edge id="83073" from="83" to="73" priority="1" numLanes="4" speed="18" />
                <edge id="83093" from="83" to="93" priority="1" numLanes="4" speed="18" />
                <edge id="93083" from="93" to="83" priority="1" numLanes="4" speed="18" />
                <edge id="93103" from="93" to="103" priority="1" numLanes="4" speed="18" />
                <edge id="103093" from="103" to="93" priority="1" numLanes="4" speed="18" />
                <edge id="14024" from="14" to="24" priority="1" numLanes="4" speed="18" />
                <edge id="24014" from="24" to="14" priority="1" numLanes="4" speed="18" />
                <edge id="24034" from="24" to="34" priority="1" numLanes="4" speed="18" />
                <edge id="34024" from="34" to="24" priority="1" numLanes="4" speed="18" />
                <edge id="34044" from="34" to="44" priority="1" numLanes="4" speed="18" />
                <edge id="44034" from="44" to="34" priority="1" numLanes="4" speed="18" />
                <edge id="44054" from="44" to="54" priority="1" numLanes="4" speed="18" />
                <edge id="54044" from="54" to="44" priority="1" numLanes="4" speed="18" />
                <edge id="54064" from="54" to="64" priority="1" numLanes="4" speed="18" />
                <edge id="64054" from="64" to="54" priority="1" numLanes="4" speed="18" />
                <edge id="64074" from="64" to="74" priority="1" numLanes="4" speed="18" />
                <edge id="74064" from="74" to="64" priority="1" numLanes="4" speed="18" />
                <edge id="74084" from="74" to="84" priority="1" numLanes="4" speed="18" />
                <edge id="84074" from="84" to="74" priority="1" numLanes="4" speed="18" />
                <edge id="84094" from="84" to="94" priority="1" numLanes="4" speed="18" />
                <edge id="94084" from="94" to="84" priority="1" numLanes="4" speed="18" />
                <edge id="94104" from="94" to="104" priority="1" numLanes="4" speed="18" />
                <edge id="104094" from="104" to="94" priority="1" numLanes="4" speed="18" />
                <edge id="15025" from="15" to="25" priority="1" numLanes="4" speed="18" />
                <edge id="25015" from="25" to="15" priority="1" numLanes="4" speed="18" />
                <edge id="25035" from="25" to="35" priority="1" numLanes="4" speed="18" />
                <edge id="35025" from="35" to="25" priority="1" numLanes="4" speed="18" />
                <edge id="35045" from="35" to="45" priority="1" numLanes="4" speed="18" />
                <edge id="45035" from="45" to="35" priority="1" numLanes="4" speed="18" />
                <edge id="45055" from="45" to="55" priority="1" numLanes="4" speed="18" />
                <edge id="55045" from="55" to="45" priority="1" numLanes="4" speed="18" />
                <edge id="55065" from="55" to="65" priority="1" numLanes="4" speed="18" />
                <edge id="65055" from="65" to="55" priority="1" numLanes="4" speed="18" />
                <edge id="65075" from="65" to="75" priority="1" numLanes="4" speed="18" />
                <edge id="75065" from="75" to="65" priority="1" numLanes="4" speed="18" />
                <edge id="75085" from="75" to="85" priority="1" numLanes="4" speed="18" />
                <edge id="85075" from="85" to="75" priority="1" numLanes="4" speed="18" />
                <edge id="85095" from="85" to="95" priority="1" numLanes="4" speed="18" />
                <edge id="95085" from="95" to="85" priority="1" numLanes="4" speed="18" />
                <edge id="95105" from="95" to="105" priority="1" numLanes="4" speed="18" />
                <edge id="105095" from="105" to="95" priority="1" numLanes="4" speed="18" />
                <edge id="16026" from="16" to="26" priority="1" numLanes="4" speed="18" />
                <edge id="26016" from="26" to="16" priority="1" numLanes="4" speed="18" />
                <edge id="26036" from="26" to="36" priority="1" numLanes="4" speed="18" />
                <edge id="36026" from="36" to="26" priority="1" numLanes="4" speed="18" />
                <edge id="36046" from="36" to="46" priority="1" numLanes="4" speed="18" />
                <edge id="46036" from="46" to="36" priority="1" numLanes="4" speed="18" />
                <edge id="46056" from="46" to="56" priority="1" numLanes="4" speed="18" />
                <edge id="56046" from="56" to="46" priority="1" numLanes="4" speed="18" />
                <edge id="56066" from="56" to="66" priority="1" numLanes="4" speed="18" />
                <edge id="66056" from="66" to="56" priority="1" numLanes="4" speed="18" />
                <edge id="66076" from="66" to="76" priority="1" numLanes="4" speed="18" />
                <edge id="76066" from="76" to="66" priority="1" numLanes="4" speed="18" />
                <edge id="76086" from="76" to="86" priority="1" numLanes="4" speed="18" />
                <edge id="86076" from="86" to="76" priority="1" numLanes="4" speed="18" />
                <edge id="86096" from="86" to="96" priority="1" numLanes="4" speed="18" />
                <edge id="96086" from="96" to="86" priority="1" numLanes="4" speed="18" />
                <edge id="96106" from="96" to="106" priority="1" numLanes="4" speed="18" />
                <edge id="106096" from="106" to="96" priority="1" numLanes="4" speed="18" />
                <edge id="17027" from="17" to="27" priority="1" numLanes="4" speed="18" />
                <edge id="27017" from="27" to="17" priority="1" numLanes="4" speed="18" />
                <edge id="27037" from="27" to="37" priority="1" numLanes="4" speed="18" />
                <edge id="37027" from="37" to="27" priority="1" numLanes="4" speed="18" />
                <edge id="37047" from="37" to="47" priority="1" numLanes="4" speed="18" />
                <edge id="47037" from="47" to="37" priority="1" numLanes="4" speed="18" />
                <edge id="47057" from="47" to="57" priority="1" numLanes="4" speed="18" />
                <edge id="57047" from="57" to="47" priority="1" numLanes="4" speed="18" />
                <edge id="57067" from="57" to="67" priority="1" numLanes="4" speed="18" />
                <edge id="67057" from="67" to="57" priority="1" numLanes="4" speed="18" />
                <edge id="67077" from="67" to="77" priority="1" numLanes="4" speed="18" />
                <edge id="77067" from="77" to="67" priority="1" numLanes="4" speed="18" />
                <edge id="77087" from="77" to="87" priority="1" numLanes="4" speed="18" />
                <edge id="87077" from="87" to="77" priority="1" numLanes="4" speed="18" />
                <edge id="87097" from="87" to="97" priority="1" numLanes="4" speed="18" />
                <edge id="97087" from="97" to="87" priority="1" numLanes="4" speed="18" />
                <edge id="97107" from="97" to="107" priority="1" numLanes="4" speed="18" />
                <edge id="107097" from="107" to="97" priority="1" numLanes="4" speed="18" />
                <edge id="18028" from="18" to="28" priority="1" numLanes="4" speed="18" />
                <edge id="28018" from="28" to="18" priority="1" numLanes="4" speed="18" />
                <edge id="28038" from="28" to="38" priority="1" numLanes="4" speed="18" />
                <edge id="38028" from="38" to="28" priority="1" numLanes="4" speed="18" />
                <edge id="38048" from="38" to="48" priority="1" numLanes="4" speed="18" />
                <edge id="48038" from="48" to="38" priority="1" numLanes="4" speed="18" />
                <edge id="48058" from="48" to="58" priority="1" numLanes="4" speed="18" />
                <edge id="58048" from="58" to="48" priority="1" numLanes="4" speed="18" />
                <edge id="58068" from="58" to="68" priority="1" numLanes="4" speed="18" />
                <edge id="68058" from="68" to="58" priority="1" numLanes="4" speed="18" />
                <edge id="68078" from="68" to="78" priority="1" numLanes="4" speed="18" />
                <edge id="78068" from="78" to="68" priority="1" numLanes="4" speed="18" />
                <edge id="78088" from="78" to="88" priority="1" numLanes="4" speed="18" />
                <edge id="88078" from="88" to="78" priority="1" numLanes="4" speed="18" />
                <edge id="88098" from="88" to="98" priority="1" numLanes="4" speed="18" />
                <edge id="98088" from="98" to="88" priority="1" numLanes="4" speed="18" />
                <edge id="98108" from="98" to="108" priority="1" numLanes="4" speed="18" />
                <edge id="108098" from="108" to="98" priority="1" numLanes="4" speed="18" />
                <edge id="19029" from="19" to="29" priority="1" numLanes="4" speed="18" />
                <edge id="29019" from="29" to="19" priority="1" numLanes="4" speed="18" />
                <edge id="29039" from="29" to="39" priority="1" numLanes="4" speed="18" />
                <edge id="39029" from="39" to="29" priority="1" numLanes="4" speed="18" />
                <edge id="39049" from="39" to="49" priority="1" numLanes="4" speed="18" />
                <edge id="49039" from="49" to="39" priority="1" numLanes="4" speed="18" />
                <edge id="49059" from="49" to="59" priority="1" numLanes="4" speed="18" />
                <edge id="59049" from="59" to="49" priority="1" numLanes="4" speed="18" />
                <edge id="59069" from="59" to="69" priority="1" numLanes="4" speed="18" />
                <edge id="69059" from="69" to="59" priority="1" numLanes="4" speed="18" />
                <edge id="69079" from="69" to="79" priority="1" numLanes="4" speed="18" />
                <edge id="79069" from="79" to="69" priority="1" numLanes="4" speed="18" />
                <edge id="79089" from="79" to="89" priority="1" numLanes="4" speed="18" />
                <edge id="89079" from="89" to="79" priority="1" numLanes="4" speed="18" />
                <edge id="89099" from="89" to="99" priority="1" numLanes="4" speed="18" />
                <edge id="99089" from="99" to="89" priority="1" numLanes="4" speed="18" />
                <edge id="99109" from="99" to="109" priority="1" numLanes="4" speed="18" />
                <edge id="109099" from="109" to="99" priority="1" numLanes="4" speed="18" />
</edges>
