<?xml version="1.0" encoding="UTF-8"?>

<!-- generated on 11/24/18 12:09:45 by Eclipse SUMO netconvert Version 1.0.0
<configuration xmlns:xsi="http://www.w3.org/2001/XMLSchema-instance" xsi:noNamespaceSchemaLocation="http://sumo.dlr.de/xsd/netconvertConfiguration.xsd">

    <input>
        <node-files value="MFDGrid.nod.xml"/>
        <edge-files value="MFDGrid.edg.xml"/>
    </input>

    <output>
        <output-file value="MFDGrid.net.xml"/>
    </output>

</configuration>
-->

<net version="1.0" junctionCornerDetail="5" limitTurnSpeed="5.50" xmlns:xsi="http://www.w3.org/2001/XMLSchema-instance" xsi:noNamespaceSchemaLocation="http://sumo.dlr.de/xsd/net_file.xsd">

    <location netOffset="0.00,4500.00" convBoundary="0.00,0.00,4500.00,4500.00" origBoundary="0.00,-4500.00,4500.00,-0.00" projParameter="!"/>

    <edge id=":100_0" function="internal">
        <lane id=":100_0_0" index="0" speed="3.65" length="4.67" shape="4500.00,498.40 4501.20,499.20 4501.60,500.00 4501.20,500.80 4500.00,501.60"/>
    </edge>
    <edge id=":102_0" function="internal">
        <lane id=":102_0_0" index="0" speed="3.65" length="4.67" shape="498.40,0.00 499.20,-1.20 500.00,-1.60 500.80,-1.20 501.60,0.00"/>
    </edge>
    <edge id=":103_0" function="internal">
        <lane id=":103_0_0" index="0" speed="3.65" length="4.67" shape="998.40,0.00 999.20,-1.20 1000.00,-1.60 1000.80,-1.20 1001.60,0.00"/>
    </edge>
    <edge id=":104_0" function="internal">
        <lane id=":104_0_0" index="0" speed="3.65" length="4.67" shape="1498.40,0.00 1499.20,-1.20 1500.00,-1.60 1500.80,-1.20 1501.60,0.00"/>
    </edge>
    <edge id=":105_0" function="internal">
        <lane id=":105_0_0" index="0" speed="3.65" length="4.67" shape="1998.40,0.00 1999.20,-1.20 2000.00,-1.60 2000.80,-1.20 2001.60,0.00"/>
    </edge>
    <edge id=":106_0" function="internal">
        <lane id=":106_0_0" index="0" speed="3.65" length="4.67" shape="2498.40,0.00 2499.20,-1.20 2500.00,-1.60 2500.80,-1.20 2501.60,0.00"/>
    </edge>
    <edge id=":107_0" function="internal">
        <lane id=":107_0_0" index="0" speed="3.65" length="4.67" shape="2998.40,0.00 2999.20,-1.20 3000.00,-1.60 3000.80,-1.20 3001.60,0.00"/>
    </edge>
    <edge id=":108_0" function="internal">
        <lane id=":108_0_0" index="0" speed="3.65" length="4.67" shape="3498.40,0.00 3499.20,-1.20 3500.00,-1.60 3500.80,-1.20 3501.60,0.00"/>
    </edge>
    <edge id=":109_0" function="internal">
        <lane id=":109_0_0" index="0" speed="3.65" length="4.67" shape="3998.40,0.00 3999.20,-1.20 4000.00,-1.60 4000.80,-1.20 4001.60,0.00"/>
    </edge>
    <edge id=":12_0" function="internal">
        <lane id=":12_0_0" index="0" speed="3.65" length="4.67" shape="501.60,4500.00 500.80,4501.20 500.00,4501.60 499.20,4501.20 498.40,4500.00"/>
    </edge>
    <edge id=":13_0" function="internal">
        <lane id=":13_0_0" index="0" speed="3.65" length="4.67" shape="1001.60,4500.00 1000.80,4501.20 1000.00,4501.60 999.20,4501.20 998.40,4500.00"/>
    </edge>
    <edge id=":14_0" function="internal">
        <lane id=":14_0_0" index="0" speed="3.65" length="4.67" shape="1501.60,4500.00 1500.80,4501.20 1500.00,4501.60 1499.20,4501.20 1498.40,4500.00"/>
    </edge>
    <edge id=":15_0" function="internal">
        <lane id=":15_0_0" index="0" speed="3.65" length="4.67" shape="2001.60,4500.00 2000.80,4501.20 2000.00,4501.60 1999.20,4501.20 1998.40,4500.00"/>
    </edge>
    <edge id=":16_0" function="internal">
        <lane id=":16_0_0" index="0" speed="3.65" length="4.67" shape="2501.60,4500.00 2500.80,4501.20 2500.00,4501.60 2499.20,4501.20 2498.40,4500.00"/>
    </edge>
    <edge id=":17_0" function="internal">
        <lane id=":17_0_0" index="0" speed="3.65" length="4.67" shape="3001.60,4500.00 3000.80,4501.20 3000.00,4501.60 2999.20,4501.20 2998.40,4500.00"/>
    </edge>
    <edge id=":18_0" function="internal">
        <lane id=":18_0_0" index="0" speed="3.65" length="4.67" shape="3501.60,4500.00 3500.80,4501.20 3500.00,4501.60 3499.20,4501.20 3498.40,4500.00"/>
    </edge>
    <edge id=":19_0" function="internal">
        <lane id=":19_0_0" index="0" speed="3.65" length="4.67" shape="4001.60,4500.00 4000.80,4501.20 4000.00,4501.60 3999.20,4501.20 3998.40,4500.00"/>
    </edge>
    <edge id=":21_0" function="internal">
        <lane id=":21_0_0" index="0" speed="3.65" length="4.67" shape="0.00,4001.60 -1.20,4000.80 -1.60,4000.00 -1.20,3999.20 0.00,3998.40"/>
    </edge>
    <edge id=":22_0" function="internal">
        <lane id=":22_0_0" index="0" speed="6.51" length="9.03" shape="488.80,4016.80 488.45,4014.35 487.40,4012.60 485.65,4011.55 483.20,4011.20"/>
    </edge>
    <edge id=":22_1" function="internal">
        <lane id=":22_1_0" index="0" speed="18.00" length="33.60" shape="488.80,4016.80 488.80,3983.20"/>
        <lane id=":22_1_1" index="1" speed="18.00" length="33.60" shape="492.00,4016.80 492.00,3983.20"/>
        <lane id=":22_1_2" index="2" speed="18.00" length="33.60" shape="495.20,4016.80 495.20,3983.20"/>
        <lane id=":22_1_3" index="3" speed="18.00" length="33.60" shape="498.40,4016.80 498.40,3983.20"/>
    </edge>
    <edge id=":22_5" function="internal">
        <lane id=":22_5_0" index="0" speed="11.36" length="9.01" shape="498.40,4016.80 499.55,4008.75 500.00,4008.00"/>
    </edge>
    <edge id=":22_6" function="internal">
        <lane id=":22_6_0" index="0" speed="3.65" length="2.34" shape="498.40,4016.80 499.20,4015.60 500.00,4015.20"/>
    </edge>
    <edge id=":22_28" function="internal">
        <lane id=":22_28_0" index="0" speed="11.36" length="20.67" shape="500.00,4008.00 503.00,4003.00 508.75,3999.55 516.80,3998.40"/>
    </edge>
    <edge id=":22_29" function="internal">
        <lane id=":22_29_0" index="0" speed="3.65" length="2.34" shape="500.00,4015.20 500.80,4015.60 501.60,4016.80"/>
    </edge>
    <edge id=":22_7" function="internal">
        <lane id=":22_7_0" index="0" speed="6.51" length="9.03" shape="516.80,4011.20 514.35,4011.55 512.60,4012.60 511.55,4014.35 511.20,4016.80"/>
    </edge>
    <edge id=":22_8" function="internal">
        <lane id=":22_8_0" index="0" speed="18.00" length="33.60" shape="516.80,4011.20 483.20,4011.20"/>
        <lane id=":22_8_1" index="1" speed="18.00" length="33.60" shape="516.80,4008.00 483.20,4008.00"/>
        <lane id=":22_8_2" index="2" speed="18.00" length="33.60" shape="516.80,4004.80 483.20,4004.80"/>
        <lane id=":22_8_3" index="3" speed="18.00" length="33.60" shape="516.80,4001.60 483.20,4001.60"/>
    </edge>
    <edge id=":22_12" function="internal">
        <lane id=":22_12_0" index="0" speed="11.36" length="9.01" shape="516.80,4001.60 508.75,4000.45 508.00,4000.00"/>
    </edge>
    <edge id=":22_13" function="internal">
        <lane id=":22_13_0" index="0" speed="3.65" length="2.34" shape="516.80,4001.60 515.60,4000.80 515.20,4000.00"/>
    </edge>
    <edge id=":22_30" function="internal">
        <lane id=":22_30_0" index="0" speed="11.36" length="20.67" shape="508.00,4000.00 503.00,3997.00 499.55,3991.25 498.40,3983.20"/>
    </edge>
    <edge id=":22_31" function="internal">
        <lane id=":22_31_0" index="0" speed="3.65" length="2.34" shape="515.20,4000.00 515.60,3999.20 516.80,3998.40"/>
    </edge>
    <edge id=":22_14" function="internal">
        <lane id=":22_14_0" index="0" speed="6.51" length="9.03" shape="511.20,3983.20 511.55,3985.65 512.60,3987.40 514.35,3988.45 516.80,3988.80"/>
    </edge>
    <edge id=":22_15" function="internal">
        <lane id=":22_15_0" index="0" speed="18.00" length="33.60" shape="511.20,3983.20 511.20,4016.80"/>
        <lane id=":22_15_1" index="1" speed="18.00" length="33.60" shape="508.00,3983.20 508.00,4016.80"/>
        <lane id=":22_15_2" index="2" speed="18.00" length="33.60" shape="504.80,3983.20 504.80,4016.80"/>
        <lane id=":22_15_3" index="3" speed="18.00" length="33.60" shape="501.60,3983.20 501.60,4016.80"/>
    </edge>
    <edge id=":22_19" function="internal">
        <lane id=":22_19_0" index="0" speed="11.36" length="9.01" shape="501.60,3983.20 500.45,3991.25 500.00,3992.00"/>
    </edge>
    <edge id=":22_20" function="internal">
        <lane id=":22_20_0" index="0" speed="3.65" length="2.34" shape="501.60,3983.20 500.80,3984.40 500.00,3984.80"/>
    </edge>
    <edge id=":22_32" function="internal">
        <lane id=":22_32_0" index="0" speed="11.36" length="20.67" shape="500.00,3992.00 497.00,3997.00 491.25,4000.45 483.20,4001.60"/>
    </edge>
    <edge id=":22_33" function="internal">
        <lane id=":22_33_0" index="0" speed="3.65" length="2.34" shape="500.00,3984.80 499.20,3984.40 498.40,3983.20"/>
    </edge>
    <edge id=":22_21" function="internal">
        <lane id=":22_21_0" index="0" speed="6.51" length="9.03" shape="483.20,3988.80 485.65,3988.45 487.40,3987.40 488.45,3985.65 488.80,3983.20"/>
    </edge>
    <edge id=":22_22" function="internal">
        <lane id=":22_22_0" index="0" speed="18.00" length="33.60" shape="483.20,3988.80 516.80,3988.80"/>
        <lane id=":22_22_1" index="1" speed="18.00" length="33.60" shape="483.20,3992.00 516.80,3992.00"/>
        <lane id=":22_22_2" index="2" speed="18.00" length="33.60" shape="483.20,3995.20 516.80,3995.20"/>
        <lane id=":22_22_3" index="3" speed="18.00" length="33.60" shape="483.20,3998.40 516.80,3998.40"/>
    </edge>
    <edge id=":22_26" function="internal">
        <lane id=":22_26_0" index="0" speed="11.36" length="9.01" shape="483.20,3998.40 491.25,3999.55 492.00,4000.00"/>
    </edge>
    <edge id=":22_27" function="internal">
        <lane id=":22_27_0" index="0" speed="3.65" length="2.34" shape="483.20,3998.40 484.40,3999.20 484.80,4000.00"/>
    </edge>
    <edge id=":22_34" function="internal">
        <lane id=":22_34_0" index="0" speed="11.36" length="20.67" shape="492.00,4000.00 497.00,4003.00 500.45,4008.75 501.60,4016.80"/>
    </edge>
    <edge id=":22_35" function="internal">
        <lane id=":22_35_0" index="0" speed="3.65" length="2.34" shape="484.80,4000.00 484.40,4000.80 483.20,4001.60"/>
    </edge>
    <edge id=":23_0" function="internal">
        <lane id=":23_0_0" index="0" speed="6.51" length="9.03" shape="988.80,4016.80 988.45,4014.35 987.40,4012.60 985.65,4011.55 983.20,4011.20"/>
    </edge>
    <edge id=":23_1" function="internal">
        <lane id=":23_1_0" index="0" speed="18.00" length="33.60" shape="988.80,4016.80 988.80,3983.20"/>
        <lane id=":23_1_1" index="1" speed="18.00" length="33.60" shape="992.00,4016.80 992.00,3983.20"/>
        <lane id=":23_1_2" index="2" speed="18.00" length="33.60" shape="995.20,4016.80 995.20,3983.20"/>
        <lane id=":23_1_3" index="3" speed="18.00" length="33.60" shape="998.40,4016.80 998.40,3983.20"/>
    </edge>
    <edge id=":23_5" function="internal">
        <lane id=":23_5_0" index="0" speed="11.36" length="9.01" shape="998.40,4016.80 999.55,4008.75 1000.00,4008.00"/>
    </edge>
    <edge id=":23_6" function="internal">
        <lane id=":23_6_0" index="0" speed="3.65" length="2.34" shape="998.40,4016.80 999.20,4015.60 1000.00,4015.20"/>
    </edge>
    <edge id=":23_28" function="internal">
        <lane id=":23_28_0" index="0" speed="11.36" length="20.67" shape="1000.00,4008.00 1003.00,4003.00 1008.75,3999.55 1016.80,3998.40"/>
    </edge>
    <edge id=":23_29" function="internal">
        <lane id=":23_29_0" index="0" speed="3.65" length="2.34" shape="1000.00,4015.20 1000.80,4015.60 1001.60,4016.80"/>
    </edge>
    <edge id=":23_7" function="internal">
        <lane id=":23_7_0" index="0" speed="6.51" length="9.03" shape="1016.80,4011.20 1014.35,4011.55 1012.60,4012.60 1011.55,4014.35 1011.20,4016.80"/>
    </edge>
    <edge id=":23_8" function="internal">
        <lane id=":23_8_0" index="0" speed="18.00" length="33.60" shape="1016.80,4011.20 983.20,4011.20"/>
        <lane id=":23_8_1" index="1" speed="18.00" length="33.60" shape="1016.80,4008.00 983.20,4008.00"/>
        <lane id=":23_8_2" index="2" speed="18.00" length="33.60" shape="1016.80,4004.80 983.20,4004.80"/>
        <lane id=":23_8_3" index="3" speed="18.00" length="33.60" shape="1016.80,4001.60 983.20,4001.60"/>
    </edge>
    <edge id=":23_12" function="internal">
        <lane id=":23_12_0" index="0" speed="11.36" length="9.01" shape="1016.80,4001.60 1008.75,4000.45 1008.00,4000.00"/>
    </edge>
    <edge id=":23_13" function="internal">
        <lane id=":23_13_0" index="0" speed="3.65" length="2.34" shape="1016.80,4001.60 1015.60,4000.80 1015.20,4000.00"/>
    </edge>
    <edge id=":23_30" function="internal">
        <lane id=":23_30_0" index="0" speed="11.36" length="20.67" shape="1008.00,4000.00 1003.00,3997.00 999.55,3991.25 998.40,3983.20"/>
    </edge>
    <edge id=":23_31" function="internal">
        <lane id=":23_31_0" index="0" speed="3.65" length="2.34" shape="1015.20,4000.00 1015.60,3999.20 1016.80,3998.40"/>
    </edge>
    <edge id=":23_14" function="internal">
        <lane id=":23_14_0" index="0" speed="6.51" length="9.03" shape="1011.20,3983.20 1011.55,3985.65 1012.60,3987.40 1014.35,3988.45 1016.80,3988.80"/>
    </edge>
    <edge id=":23_15" function="internal">
        <lane id=":23_15_0" index="0" speed="18.00" length="33.60" shape="1011.20,3983.20 1011.20,4016.80"/>
        <lane id=":23_15_1" index="1" speed="18.00" length="33.60" shape="1008.00,3983.20 1008.00,4016.80"/>
        <lane id=":23_15_2" index="2" speed="18.00" length="33.60" shape="1004.80,3983.20 1004.80,4016.80"/>
        <lane id=":23_15_3" index="3" speed="18.00" length="33.60" shape="1001.60,3983.20 1001.60,4016.80"/>
    </edge>
    <edge id=":23_19" function="internal">
        <lane id=":23_19_0" index="0" speed="11.36" length="9.01" shape="1001.60,3983.20 1000.45,3991.25 1000.00,3992.00"/>
    </edge>
    <edge id=":23_20" function="internal">
        <lane id=":23_20_0" index="0" speed="3.65" length="2.34" shape="1001.60,3983.20 1000.80,3984.40 1000.00,3984.80"/>
    </edge>
    <edge id=":23_32" function="internal">
        <lane id=":23_32_0" index="0" speed="11.36" length="20.67" shape="1000.00,3992.00 997.00,3997.00 991.25,4000.45 983.20,4001.60"/>
    </edge>
    <edge id=":23_33" function="internal">
        <lane id=":23_33_0" index="0" speed="3.65" length="2.34" shape="1000.00,3984.80 999.20,3984.40 998.40,3983.20"/>
    </edge>
    <edge id=":23_21" function="internal">
        <lane id=":23_21_0" index="0" speed="6.51" length="9.03" shape="983.20,3988.80 985.65,3988.45 987.40,3987.40 988.45,3985.65 988.80,3983.20"/>
    </edge>
    <edge id=":23_22" function="internal">
        <lane id=":23_22_0" index="0" speed="18.00" length="33.60" shape="983.20,3988.80 1016.80,3988.80"/>
        <lane id=":23_22_1" index="1" speed="18.00" length="33.60" shape="983.20,3992.00 1016.80,3992.00"/>
        <lane id=":23_22_2" index="2" speed="18.00" length="33.60" shape="983.20,3995.20 1016.80,3995.20"/>
        <lane id=":23_22_3" index="3" speed="18.00" length="33.60" shape="983.20,3998.40 1016.80,3998.40"/>
    </edge>
    <edge id=":23_26" function="internal">
        <lane id=":23_26_0" index="0" speed="11.36" length="9.01" shape="983.20,3998.40 991.25,3999.55 992.00,4000.00"/>
    </edge>
    <edge id=":23_27" function="internal">
        <lane id=":23_27_0" index="0" speed="3.65" length="2.34" shape="983.20,3998.40 984.40,3999.20 984.80,4000.00"/>
    </edge>
    <edge id=":23_34" function="internal">
        <lane id=":23_34_0" index="0" speed="11.36" length="20.67" shape="992.00,4000.00 997.00,4003.00 1000.45,4008.75 1001.60,4016.80"/>
    </edge>
    <edge id=":23_35" function="internal">
        <lane id=":23_35_0" index="0" speed="3.65" length="2.34" shape="984.80,4000.00 984.40,4000.80 983.20,4001.60"/>
    </edge>
    <edge id=":24_0" function="internal">
        <lane id=":24_0_0" index="0" speed="6.51" length="9.03" shape="1488.80,4016.80 1488.45,4014.35 1487.40,4012.60 1485.65,4011.55 1483.20,4011.20"/>
    </edge>
    <edge id=":24_1" function="internal">
        <lane id=":24_1_0" index="0" speed="18.00" length="33.60" shape="1488.80,4016.80 1488.80,3983.20"/>
        <lane id=":24_1_1" index="1" speed="18.00" length="33.60" shape="1492.00,4016.80 1492.00,3983.20"/>
        <lane id=":24_1_2" index="2" speed="18.00" length="33.60" shape="1495.20,4016.80 1495.20,3983.20"/>
        <lane id=":24_1_3" index="3" speed="18.00" length="33.60" shape="1498.40,4016.80 1498.40,3983.20"/>
    </edge>
    <edge id=":24_5" function="internal">
        <lane id=":24_5_0" index="0" speed="11.36" length="9.01" shape="1498.40,4016.80 1499.55,4008.75 1500.00,4008.00"/>
    </edge>
    <edge id=":24_6" function="internal">
        <lane id=":24_6_0" index="0" speed="3.65" length="2.34" shape="1498.40,4016.80 1499.20,4015.60 1500.00,4015.20"/>
    </edge>
    <edge id=":24_28" function="internal">
        <lane id=":24_28_0" index="0" speed="11.36" length="20.67" shape="1500.00,4008.00 1503.00,4003.00 1508.75,3999.55 1516.80,3998.40"/>
    </edge>
    <edge id=":24_29" function="internal">
        <lane id=":24_29_0" index="0" speed="3.65" length="2.34" shape="1500.00,4015.20 1500.80,4015.60 1501.60,4016.80"/>
    </edge>
    <edge id=":24_7" function="internal">
        <lane id=":24_7_0" index="0" speed="6.51" length="9.03" shape="1516.80,4011.20 1514.35,4011.55 1512.60,4012.60 1511.55,4014.35 1511.20,4016.80"/>
    </edge>
    <edge id=":24_8" function="internal">
        <lane id=":24_8_0" index="0" speed="18.00" length="33.60" shape="1516.80,4011.20 1483.20,4011.20"/>
        <lane id=":24_8_1" index="1" speed="18.00" length="33.60" shape="1516.80,4008.00 1483.20,4008.00"/>
        <lane id=":24_8_2" index="2" speed="18.00" length="33.60" shape="1516.80,4004.80 1483.20,4004.80"/>
        <lane id=":24_8_3" index="3" speed="18.00" length="33.60" shape="1516.80,4001.60 1483.20,4001.60"/>
    </edge>
    <edge id=":24_12" function="internal">
        <lane id=":24_12_0" index="0" speed="11.36" length="9.01" shape="1516.80,4001.60 1508.75,4000.45 1508.00,4000.00"/>
    </edge>
    <edge id=":24_13" function="internal">
        <lane id=":24_13_0" index="0" speed="3.65" length="2.34" shape="1516.80,4001.60 1515.60,4000.80 1515.20,4000.00"/>
    </edge>
    <edge id=":24_30" function="internal">
        <lane id=":24_30_0" index="0" speed="11.36" length="20.67" shape="1508.00,4000.00 1503.00,3997.00 1499.55,3991.25 1498.40,3983.20"/>
    </edge>
    <edge id=":24_31" function="internal">
        <lane id=":24_31_0" index="0" speed="3.65" length="2.34" shape="1515.20,4000.00 1515.60,3999.20 1516.80,3998.40"/>
    </edge>
    <edge id=":24_14" function="internal">
        <lane id=":24_14_0" index="0" speed="6.51" length="9.03" shape="1511.20,3983.20 1511.55,3985.65 1512.60,3987.40 1514.35,3988.45 1516.80,3988.80"/>
    </edge>
    <edge id=":24_15" function="internal">
        <lane id=":24_15_0" index="0" speed="18.00" length="33.60" shape="1511.20,3983.20 1511.20,4016.80"/>
        <lane id=":24_15_1" index="1" speed="18.00" length="33.60" shape="1508.00,3983.20 1508.00,4016.80"/>
        <lane id=":24_15_2" index="2" speed="18.00" length="33.60" shape="1504.80,3983.20 1504.80,4016.80"/>
        <lane id=":24_15_3" index="3" speed="18.00" length="33.60" shape="1501.60,3983.20 1501.60,4016.80"/>
    </edge>
    <edge id=":24_19" function="internal">
        <lane id=":24_19_0" index="0" speed="11.36" length="9.01" shape="1501.60,3983.20 1500.45,3991.25 1500.00,3992.00"/>
    </edge>
    <edge id=":24_20" function="internal">
        <lane id=":24_20_0" index="0" speed="3.65" length="2.34" shape="1501.60,3983.20 1500.80,3984.40 1500.00,3984.80"/>
    </edge>
    <edge id=":24_32" function="internal">
        <lane id=":24_32_0" index="0" speed="11.36" length="20.67" shape="1500.00,3992.00 1497.00,3997.00 1491.25,4000.45 1483.20,4001.60"/>
    </edge>
    <edge id=":24_33" function="internal">
        <lane id=":24_33_0" index="0" speed="3.65" length="2.34" shape="1500.00,3984.80 1499.20,3984.40 1498.40,3983.20"/>
    </edge>
    <edge id=":24_21" function="internal">
        <lane id=":24_21_0" index="0" speed="6.51" length="9.03" shape="1483.20,3988.80 1485.65,3988.45 1487.40,3987.40 1488.45,3985.65 1488.80,3983.20"/>
    </edge>
    <edge id=":24_22" function="internal">
        <lane id=":24_22_0" index="0" speed="18.00" length="33.60" shape="1483.20,3988.80 1516.80,3988.80"/>
        <lane id=":24_22_1" index="1" speed="18.00" length="33.60" shape="1483.20,3992.00 1516.80,3992.00"/>
        <lane id=":24_22_2" index="2" speed="18.00" length="33.60" shape="1483.20,3995.20 1516.80,3995.20"/>
        <lane id=":24_22_3" index="3" speed="18.00" length="33.60" shape="1483.20,3998.40 1516.80,3998.40"/>
    </edge>
    <edge id=":24_26" function="internal">
        <lane id=":24_26_0" index="0" speed="11.36" length="9.01" shape="1483.20,3998.40 1491.25,3999.55 1492.00,4000.00"/>
    </edge>
    <edge id=":24_27" function="internal">
        <lane id=":24_27_0" index="0" speed="3.65" length="2.34" shape="1483.20,3998.40 1484.40,3999.20 1484.80,4000.00"/>
    </edge>
    <edge id=":24_34" function="internal">
        <lane id=":24_34_0" index="0" speed="11.36" length="20.67" shape="1492.00,4000.00 1497.00,4003.00 1500.45,4008.75 1501.60,4016.80"/>
    </edge>
    <edge id=":24_35" function="internal">
        <lane id=":24_35_0" index="0" speed="3.65" length="2.34" shape="1484.80,4000.00 1484.40,4000.80 1483.20,4001.60"/>
    </edge>
    <edge id=":25_0" function="internal">
        <lane id=":25_0_0" index="0" speed="6.51" length="9.03" shape="1988.80,4016.80 1988.45,4014.35 1987.40,4012.60 1985.65,4011.55 1983.20,4011.20"/>
    </edge>
    <edge id=":25_1" function="internal">
        <lane id=":25_1_0" index="0" speed="18.00" length="33.60" shape="1988.80,4016.80 1988.80,3983.20"/>
        <lane id=":25_1_1" index="1" speed="18.00" length="33.60" shape="1992.00,4016.80 1992.00,3983.20"/>
        <lane id=":25_1_2" index="2" speed="18.00" length="33.60" shape="1995.20,4016.80 1995.20,3983.20"/>
        <lane id=":25_1_3" index="3" speed="18.00" length="33.60" shape="1998.40,4016.80 1998.40,3983.20"/>
    </edge>
    <edge id=":25_5" function="internal">
        <lane id=":25_5_0" index="0" speed="11.36" length="9.01" shape="1998.40,4016.80 1999.55,4008.75 2000.00,4008.00"/>
    </edge>
    <edge id=":25_6" function="internal">
        <lane id=":25_6_0" index="0" speed="3.65" length="2.34" shape="1998.40,4016.80 1999.20,4015.60 2000.00,4015.20"/>
    </edge>
    <edge id=":25_28" function="internal">
        <lane id=":25_28_0" index="0" speed="11.36" length="20.67" shape="2000.00,4008.00 2003.00,4003.00 2008.75,3999.55 2016.80,3998.40"/>
    </edge>
    <edge id=":25_29" function="internal">
        <lane id=":25_29_0" index="0" speed="3.65" length="2.34" shape="2000.00,4015.20 2000.80,4015.60 2001.60,4016.80"/>
    </edge>
    <edge id=":25_7" function="internal">
        <lane id=":25_7_0" index="0" speed="6.51" length="9.03" shape="2016.80,4011.20 2014.35,4011.55 2012.60,4012.60 2011.55,4014.35 2011.20,4016.80"/>
    </edge>
    <edge id=":25_8" function="internal">
        <lane id=":25_8_0" index="0" speed="18.00" length="33.60" shape="2016.80,4011.20 1983.20,4011.20"/>
        <lane id=":25_8_1" index="1" speed="18.00" length="33.60" shape="2016.80,4008.00 1983.20,4008.00"/>
        <lane id=":25_8_2" index="2" speed="18.00" length="33.60" shape="2016.80,4004.80 1983.20,4004.80"/>
        <lane id=":25_8_3" index="3" speed="18.00" length="33.60" shape="2016.80,4001.60 1983.20,4001.60"/>
    </edge>
    <edge id=":25_12" function="internal">
        <lane id=":25_12_0" index="0" speed="11.36" length="9.01" shape="2016.80,4001.60 2008.75,4000.45 2008.00,4000.00"/>
    </edge>
    <edge id=":25_13" function="internal">
        <lane id=":25_13_0" index="0" speed="3.65" length="2.34" shape="2016.80,4001.60 2015.60,4000.80 2015.20,4000.00"/>
    </edge>
    <edge id=":25_30" function="internal">
        <lane id=":25_30_0" index="0" speed="11.36" length="20.67" shape="2008.00,4000.00 2003.00,3997.00 1999.55,3991.25 1998.40,3983.20"/>
    </edge>
    <edge id=":25_31" function="internal">
        <lane id=":25_31_0" index="0" speed="3.65" length="2.34" shape="2015.20,4000.00 2015.60,3999.20 2016.80,3998.40"/>
    </edge>
    <edge id=":25_14" function="internal">
        <lane id=":25_14_0" index="0" speed="6.51" length="9.03" shape="2011.20,3983.20 2011.55,3985.65 2012.60,3987.40 2014.35,3988.45 2016.80,3988.80"/>
    </edge>
    <edge id=":25_15" function="internal">
        <lane id=":25_15_0" index="0" speed="18.00" length="33.60" shape="2011.20,3983.20 2011.20,4016.80"/>
        <lane id=":25_15_1" index="1" speed="18.00" length="33.60" shape="2008.00,3983.20 2008.00,4016.80"/>
        <lane id=":25_15_2" index="2" speed="18.00" length="33.60" shape="2004.80,3983.20 2004.80,4016.80"/>
        <lane id=":25_15_3" index="3" speed="18.00" length="33.60" shape="2001.60,3983.20 2001.60,4016.80"/>
    </edge>
    <edge id=":25_19" function="internal">
        <lane id=":25_19_0" index="0" speed="11.36" length="9.01" shape="2001.60,3983.20 2000.45,3991.25 2000.00,3992.00"/>
    </edge>
    <edge id=":25_20" function="internal">
        <lane id=":25_20_0" index="0" speed="3.65" length="2.34" shape="2001.60,3983.20 2000.80,3984.40 2000.00,3984.80"/>
    </edge>
    <edge id=":25_32" function="internal">
        <lane id=":25_32_0" index="0" speed="11.36" length="20.67" shape="2000.00,3992.00 1997.00,3997.00 1991.25,4000.45 1983.20,4001.60"/>
    </edge>
    <edge id=":25_33" function="internal">
        <lane id=":25_33_0" index="0" speed="3.65" length="2.34" shape="2000.00,3984.80 1999.20,3984.40 1998.40,3983.20"/>
    </edge>
    <edge id=":25_21" function="internal">
        <lane id=":25_21_0" index="0" speed="6.51" length="9.03" shape="1983.20,3988.80 1985.65,3988.45 1987.40,3987.40 1988.45,3985.65 1988.80,3983.20"/>
    </edge>
    <edge id=":25_22" function="internal">
        <lane id=":25_22_0" index="0" speed="18.00" length="33.60" shape="1983.20,3988.80 2016.80,3988.80"/>
        <lane id=":25_22_1" index="1" speed="18.00" length="33.60" shape="1983.20,3992.00 2016.80,3992.00"/>
        <lane id=":25_22_2" index="2" speed="18.00" length="33.60" shape="1983.20,3995.20 2016.80,3995.20"/>
        <lane id=":25_22_3" index="3" speed="18.00" length="33.60" shape="1983.20,3998.40 2016.80,3998.40"/>
    </edge>
    <edge id=":25_26" function="internal">
        <lane id=":25_26_0" index="0" speed="11.36" length="9.01" shape="1983.20,3998.40 1991.25,3999.55 1992.00,4000.00"/>
    </edge>
    <edge id=":25_27" function="internal">
        <lane id=":25_27_0" index="0" speed="3.65" length="2.34" shape="1983.20,3998.40 1984.40,3999.20 1984.80,4000.00"/>
    </edge>
    <edge id=":25_34" function="internal">
        <lane id=":25_34_0" index="0" speed="11.36" length="20.67" shape="1992.00,4000.00 1997.00,4003.00 2000.45,4008.75 2001.60,4016.80"/>
    </edge>
    <edge id=":25_35" function="internal">
        <lane id=":25_35_0" index="0" speed="3.65" length="2.34" shape="1984.80,4000.00 1984.40,4000.80 1983.20,4001.60"/>
    </edge>
    <edge id=":26_0" function="internal">
        <lane id=":26_0_0" index="0" speed="6.51" length="9.03" shape="2488.80,4016.80 2488.45,4014.35 2487.40,4012.60 2485.65,4011.55 2483.20,4011.20"/>
    </edge>
    <edge id=":26_1" function="internal">
        <lane id=":26_1_0" index="0" speed="18.00" length="33.60" shape="2488.80,4016.80 2488.80,3983.20"/>
        <lane id=":26_1_1" index="1" speed="18.00" length="33.60" shape="2492.00,4016.80 2492.00,3983.20"/>
        <lane id=":26_1_2" index="2" speed="18.00" length="33.60" shape="2495.20,4016.80 2495.20,3983.20"/>
        <lane id=":26_1_3" index="3" speed="18.00" length="33.60" shape="2498.40,4016.80 2498.40,3983.20"/>
    </edge>
    <edge id=":26_5" function="internal">
        <lane id=":26_5_0" index="0" speed="11.36" length="9.01" shape="2498.40,4016.80 2499.55,4008.75 2500.00,4008.00"/>
    </edge>
    <edge id=":26_6" function="internal">
        <lane id=":26_6_0" index="0" speed="3.65" length="2.34" shape="2498.40,4016.80 2499.20,4015.60 2500.00,4015.20"/>
    </edge>
    <edge id=":26_28" function="internal">
        <lane id=":26_28_0" index="0" speed="11.36" length="20.67" shape="2500.00,4008.00 2503.00,4003.00 2508.75,3999.55 2516.80,3998.40"/>
    </edge>
    <edge id=":26_29" function="internal">
        <lane id=":26_29_0" index="0" speed="3.65" length="2.34" shape="2500.00,4015.20 2500.80,4015.60 2501.60,4016.80"/>
    </edge>
    <edge id=":26_7" function="internal">
        <lane id=":26_7_0" index="0" speed="6.51" length="9.03" shape="2516.80,4011.20 2514.35,4011.55 2512.60,4012.60 2511.55,4014.35 2511.20,4016.80"/>
    </edge>
    <edge id=":26_8" function="internal">
        <lane id=":26_8_0" index="0" speed="18.00" length="33.60" shape="2516.80,4011.20 2483.20,4011.20"/>
        <lane id=":26_8_1" index="1" speed="18.00" length="33.60" shape="2516.80,4008.00 2483.20,4008.00"/>
        <lane id=":26_8_2" index="2" speed="18.00" length="33.60" shape="2516.80,4004.80 2483.20,4004.80"/>
        <lane id=":26_8_3" index="3" speed="18.00" length="33.60" shape="2516.80,4001.60 2483.20,4001.60"/>
    </edge>
    <edge id=":26_12" function="internal">
        <lane id=":26_12_0" index="0" speed="11.36" length="9.01" shape="2516.80,4001.60 2508.75,4000.45 2508.00,4000.00"/>
    </edge>
    <edge id=":26_13" function="internal">